BEGIN griddata
  strt
    CONSTANT      50.00000000
END griddata

