# File generated by Flopy version 3.3.3 on 06/21/2021 at 09:33:45.
BEGIN options
  BOUNDNAMES
  OBS6  FILEIN  gwf.chd.obs
END options

BEGIN dimensions
  MAXBOUND  56
END dimensions

BEGIN period  1
  1 1 1      50.00000000  chd
  1 2 1      50.00000000  chd
  1 3 1      50.00000000  chd
  1 4 1      50.00000000  chd
  1 5 1      50.00000000  chd
  1 6 1      50.00000000  chd
  1 7 1      50.00000000  chd
  1 8 1      50.00000000  chd
  1 9 1      50.00000000  chd
  1 10 1      50.00000000  chd
  1 11 1      50.00000000  chd
  1 12 1      50.00000000  chd
  1 13 1      50.00000000  chd
  1 14 1      50.00000000  chd
  1 1 10      50.00000000  chd
  1 2 10      50.00000000  chd
  1 3 10      50.00000000  chd
  1 4 10      50.00000000  chd
  1 5 10      50.00000000  chd
  1 6 10      50.00000000  chd
  1 7 10      50.00000000  chd
  1 8 10      50.00000000  chd
  1 9 10      50.00000000  chd
  1 10 10      50.00000000  chd
  1 11 10      50.00000000  chd
  1 12 10      50.00000000  chd
  1 13 10      50.00000000  chd
  1 14 10      50.00000000  chd
  2 1 1      50.00000000  chd
  2 2 1      50.00000000  chd
  2 3 1      50.00000000  chd
  2 4 1      50.00000000  chd
  2 5 1      50.00000000  chd
  2 6 1      50.00000000  chd
  2 7 1      50.00000000  chd
  2 8 1      50.00000000  chd
  2 9 1      50.00000000  chd
  2 10 1      50.00000000  chd
  2 11 1      50.00000000  chd
  2 12 1      50.00000000  chd
  2 13 1      50.00000000  chd
  2 14 1      50.00000000  chd
  2 1 10      50.00000000  chd
  2 2 10      50.00000000  chd
  2 3 10      50.00000000  chd
  2 4 10      50.00000000  chd
  2 5 10      50.00000000  chd
  2 6 10      50.00000000  chd
  2 7 10      50.00000000  chd
  2 8 10      50.00000000  chd
  2 9 10      50.00000000  chd
  2 10 10      50.00000000  chd
  2 11 10      50.00000000  chd
  2 12 10      50.00000000  chd
  2 13 10      50.00000000  chd
  2 14 10      50.00000000  chd
END period  1

BEGIN period  2
  1 1 1      50.00000000  chd
  1 2 1      50.00000000  chd
  1 3 1      50.00000000  chd
  1 4 1      50.00000000  chd
  1 5 1      50.00000000  chd
  1 6 1      50.00000000  chd
  1 7 1      50.00000000  chd
  1 8 1      50.00000000  chd
  1 9 1      50.00000000  chd
  1 10 1      50.00000000  chd
  1 11 1      50.00000000  chd
  1 12 1      50.00000000  chd
  1 13 1      50.00000000  chd
  1 14 1      50.00000000  chd
  1 1 10      50.00000000  chd
  1 2 10      50.00000000  chd
  1 3 10      50.00000000  chd
  1 4 10      50.00000000  chd
  1 5 10      50.00000000  chd
  1 6 10      50.00000000  chd
  1 7 10      50.00000000  chd
  1 8 10      50.00000000  chd
  1 9 10      50.00000000  chd
  1 10 10      50.00000000  chd
  1 11 10      50.00000000  chd
  1 12 10      50.00000000  chd
  1 13 10      50.00000000  chd
  1 14 10      50.00000000  chd
  2 1 1      50.00000000  chd
  2 2 1      50.00000000  chd
  2 3 1      50.00000000  chd
  2 4 1      50.00000000  chd
  2 5 1      50.00000000  chd
  2 6 1      50.00000000  chd
  2 7 1      50.00000000  chd
  2 8 1      50.00000000  chd
  2 9 1      50.00000000  chd
  2 10 1      50.00000000  chd
  2 11 1      50.00000000  chd
  2 12 1      50.00000000  chd
  2 13 1      50.00000000  chd
  2 14 1      50.00000000  chd
  2 1 10      50.00000000  chd
  2 2 10      50.00000000  chd
  2 3 10      50.00000000  chd
  2 4 10      50.00000000  chd
  2 5 10      50.00000000  chd
  2 6 10      50.00000000  chd
  2 7 10      50.00000000  chd
  2 8 10      50.00000000  chd
  2 9 10      50.00000000  chd
  2 10 10      50.00000000  chd
  2 11 10      50.00000000  chd
  2 12 10      50.00000000  chd
  2 13 10      50.00000000  chd
  2 14 10      50.00000000  chd
END period  2

