# File generated by Flopy version 3.3.3 on 06/21/2021 at 09:33:45.
BEGIN options
  SAVE_FLOWS
END options

BEGIN griddata
  icelltype  LAYERED
    CONSTANT  1
    CONSTANT  0
    CONSTANT  0
  k  LAYERED
    CONSTANT       5.00000000
    CONSTANT       0.10000000
    CONSTANT       4.00000000
  k33  LAYERED
    CONSTANT       0.50000000
    CONSTANT       0.00500000
    CONSTANT       0.10000000
END griddata

