# File generated by Flopy version 3.3.3 on 06/21/2021 at 09:33:45.
BEGIN griddata
  strt
    CONSTANT      50.00000000
END griddata

