# File generated by Flopy version 3.3.3 on 06/21/2021 at 09:33:45.
BEGIN options
  DIGITS  9
  PRINT_INPUT
END options

BEGIN continuous  FILEOUT  chd_flow.csv
  chd  CHD  chd
END continuous  FILEOUT  chd_flow.csv

