BEGIN options
  FIXED_CELL
  auxiliary  MULTIPLIER
  AUXMULTNAME  multiplier
  BOUNDNAMES
  PRINT_INPUT
  PRINT_FLOWS
  SAVE_FLOWS
  TS6  FILEIN  rch.ts
END options

BEGIN dimensions
  MAXBOUND  150
END dimensions

BEGIN period  1
  1 1 1  rch_lu1       1.00000000  rch
  1 1 2  rch_lu1       1.00000000  rch
  1 1 3  rch_lu1       1.00000000  rch
  1 1 4  rch_lu1       1.00000000  rch
  1 1 5  rch_lu1       1.00000000  rch
  1 1 6  rch_lu1       1.00000000  rch
  1 1 7  rch_lu1       1.00000000  rch
  1 1 8  rch_lu1       1.00000000  rch
  1 1 9  rch_lu1       1.00000000  rch
  1 1 10  rch_lu1       1.00000000  rch
  1 2 1  rch_lu1       1.00000000  rch
  1 2 2  rch_lu1       1.00000000  rch
  1 2 3  rch_lu1       1.00000000  rch
  1 2 4  rch_lu1       1.00000000  rch
  1 2 5  rch_lu1       1.00000000  rch
  1 2 6  rch_lu1       1.00000000  rch
  1 2 7  rch_lu1       1.00000000  rch
  1 2 8  rch_lu1       1.00000000  rch
  1 2 9  rch_lu1       1.00000000  rch
  1 2 10  rch_lu1       1.00000000  rch
  1 3 1  rch_lu1       1.00000000  rch
  1 3 2  rch_lu1       1.00000000  rch
  1 3 3  rch_lu1       1.00000000  rch
  1 3 4  rch_lu1       1.00000000  rch
  1 3 5  rch_lu1       1.00000000  rch
  1 3 6  rch_lu1       1.00000000  rch
  1 3 7  rch_lu1       1.00000000  rch
  1 3 8  rch_lu1       1.00000000  rch
  1 3 9  rch_lu1       1.00000000  rch
  1 3 10  rch_lu1       1.00000000  rch
  1 4 1  rch_lu1       1.00000000  rch
  1 4 2  rch_lu1       1.00000000  rch
  1 4 3  rch_lu1       1.00000000  rch
  1 4 4  rch_lu1       1.00000000  rch
  1 4 5  rch_lu1       1.00000000  rch
  1 4 6  rch_lu1       1.00000000  rch
  1 4 7  rch_lu1       1.00000000  rch
  1 4 8  rch_lu1       1.00000000  rch
  1 4 9  rch_lu1       1.00000000  rch
  1 4 10  rch_lu1       1.00000000  rch
  1 5 1  rch_lu1       1.00000000  rch
  1 5 2  rch_lu1       1.00000000  rch
  1 5 3  rch_lu1       1.00000000  rch
  1 5 4  rch_lu1       1.00000000  rch
  1 5 5  rch_lu1       1.00000000  rch
  1 5 6  rch_lu1       1.00000000  rch
  1 5 7  rch_lu1       1.00000000  rch
  1 5 8  rch_lu1       1.00000000  rch
  1 5 9  rch_lu1       1.00000000  rch
  1 5 10  rch_lu1       1.00000000  rch
  1 6 1  rch_lu1       1.00000000  rch
  1 6 2  rch_lu1       1.00000000  rch
  1 6 3  rch_lu1       1.00000000  rch
  1 6 4  rch_lu1       1.00000000  rch
  1 6 5  rch_lu1       1.00000000  rch
  1 6 6  rch_lu1       1.00000000  rch
  1 6 7  rch_lu1       1.00000000  rch
  1 6 8  rch_lu1       1.00000000  rch
  1 6 9  rch_lu1       1.00000000  rch
  1 6 10  rch_lu1       1.00000000  rch
  1 7 1  rch_lu1       1.00000000  rch
  1 7 2  rch_lu1       1.00000000  rch
  1 7 3  rch_lu1       1.00000000  rch
  1 7 4  rch_lu1       1.00000000  rch
  1 7 5  rch_lu1       1.00000000  rch
  1 7 6  rch_lu1       1.00000000  rch
  1 7 7  rch_lu1       1.00000000  rch
  1 7 8  rch_lu1       1.00000000  rch
  1 7 9  rch_lu1       1.00000000  rch
  1 7 10  rch_lu1       1.00000000  rch
  1 8 1  rch_lu1       1.00000000  rch
  1 8 2  rch_lu1       1.00000000  rch
  1 8 3  rch_lu1       1.00000000  rch
  1 8 4  rch_lu1       1.00000000  rch
  1 8 5  rch_lu1       1.00000000  rch
  1 8 6  rch_lu1       1.00000000  rch
  1 8 7  rch_lu1       1.00000000  rch
  1 8 8  rch_lu1       1.00000000  rch
  1 8 9  rch_lu1       1.00000000  rch
  1 8 10  rch_lu1       1.00000000  rch
  1 9 1  rch_lu1       1.00000000  rch
  1 9 2  rch_lu1       1.00000000  rch
  1 9 3  rch_lu1       1.00000000  rch
  1 9 4  rch_lu1       1.00000000  rch
  1 9 5  rch_lu1       1.00000000  rch
  1 9 6  rch_lu1       1.00000000  rch
  1 9 7  rch_lu1       1.00000000  rch
  1 9 8  rch_lu1       1.00000000  rch
  1 9 9  rch_lu1       1.00000000  rch
  1 9 10  rch_lu1       1.00000000  rch
  1 10 1  rch_lu1       1.00000000  rch
  1 10 2  rch_lu1       1.00000000  rch
  1 10 3  rch_lu1       1.00000000  rch
  1 10 4  rch_lu1       1.00000000  rch
  1 10 5  rch_lu1       1.00000000  rch
  1 10 6  rch_lu1       1.00000000  rch
  1 10 7  rch_lu1       1.00000000  rch
  1 10 8  rch_lu1       1.00000000  rch
  1 10 9  rch_lu1       1.00000000  rch
  1 10 10  rch_lu1       1.00000000  rch
  1 11 1  rch_lu1       1.00000000  rch
  1 11 2  rch_lu1       1.00000000  rch
  1 11 3  rch_lu1       1.00000000  rch
  1 11 4  rch_lu1       1.00000000  rch
  1 11 5  rch_lu1       1.00000000  rch
  1 11 6  rch_lu1       1.00000000  rch
  1 11 7  rch_lu1       1.00000000  rch
  1 11 8  rch_lu1       1.00000000  rch
  1 11 9  rch_lu1       1.00000000  rch
  1 11 10  rch_lu1       1.00000000  rch
  1 12 1  rch_lu1       1.00000000  rch
  1 12 2  rch_lu1       1.00000000  rch
  1 12 3  rch_lu1       1.00000000  rch
  1 12 4  rch_lu1       1.00000000  rch
  1 12 5  rch_lu1       1.00000000  rch
  1 12 6  rch_lu1       1.00000000  rch
  1 12 7  rch_lu1       1.00000000  rch
  1 12 8  rch_lu1       1.00000000  rch
  1 12 9  rch_lu1       1.00000000  rch
  1 12 10  rch_lu1       1.00000000  rch
  1 13 1  rch_lu1       1.00000000  rch
  1 13 2  rch_lu1       1.00000000  rch
  1 13 3  rch_lu1       1.00000000  rch
  1 13 4  rch_lu1       1.00000000  rch
  1 13 5  rch_lu1       1.00000000  rch
  1 13 6  rch_lu1       1.00000000  rch
  1 13 7  rch_lu1       1.00000000  rch
  1 13 8  rch_lu1       1.00000000  rch
  1 13 9  rch_lu1       1.00000000  rch
  1 13 10  rch_lu1       1.00000000  rch
  1 14 1  rch_lu1       1.00000000  rch
  1 14 2  rch_lu1       1.00000000  rch
  1 14 3  rch_lu1       1.00000000  rch
  1 14 4  rch_lu1       1.00000000  rch
  1 14 5  rch_lu1       1.00000000  rch
  1 14 6  rch_lu1       1.00000000  rch
  1 14 7  rch_lu1       1.00000000  rch
  1 14 8  rch_lu1       1.00000000  rch
  1 14 9  rch_lu1       1.00000000  rch
  1 14 10  rch_lu1       1.00000000  rch
  1 15 1  rch_lu1       1.00000000  rch
  1 15 2  rch_lu1       1.00000000  rch
  1 15 3  rch_lu1       1.00000000  rch
  1 15 4  rch_lu1       1.00000000  rch
  1 15 5  rch_lu1       1.00000000  rch
  1 15 6  rch_lu1       1.00000000  rch
  1 15 7  rch_lu1       1.00000000  rch
  1 15 8  rch_lu1       1.00000000  rch
  1 15 9  rch_lu1       1.00000000  rch
  1 15 10  rch_lu1       1.00000000  rch
END period  1

BEGIN period  2
  1 1 1  rch_lu1       1.00000000  rch
  1 1 2  rch_lu1       1.00000000  rch
  1 1 3  rch_lu1       1.00000000  rch
  1 1 4  rch_lu1       1.00000000  rch
  1 1 5  rch_lu1       1.00000000  rch
  1 1 6  rch_lu1       1.00000000  rch
  1 1 7  rch_lu1       1.00000000  rch
  1 1 8  rch_lu1       1.00000000  rch
  1 1 9  rch_lu1       1.00000000  rch
  1 1 10  rch_lu1       1.00000000  rch
  1 2 1  rch_lu1       1.00000000  rch
  1 2 2  rch_lu1       1.00000000  rch
  1 2 3  rch_lu1       1.00000000  rch
  1 2 4  rch_lu1       1.00000000  rch
  1 2 5  rch_lu1       1.00000000  rch
  1 2 6  rch_lu1       1.00000000  rch
  1 2 7  rch_lu1       1.00000000  rch
  1 2 8  rch_lu1       1.00000000  rch
  1 2 9  rch_lu1       1.00000000  rch
  1 2 10  rch_lu1       1.00000000  rch
  1 3 1  rch_lu1       1.00000000  rch
  1 3 2  rch_lu1       1.00000000  rch
  1 3 3  rch_lu1       1.00000000  rch
  1 3 4  rch_lu1       1.00000000  rch
  1 3 5  rch_lu1       1.00000000  rch
  1 3 6  rch_lu1       1.00000000  rch
  1 3 7  rch_lu1       1.00000000  rch
  1 3 8  rch_lu1       1.00000000  rch
  1 3 9  rch_lu1       1.00000000  rch
  1 3 10  rch_lu1       1.00000000  rch
  1 4 1  rch_lu1       1.00000000  rch
  1 4 2  rch_lu1       1.00000000  rch
  1 4 3  rch_lu1       1.00000000  rch
  1 4 4  rch_lu1       1.00000000  rch
  1 4 5  rch_lu1       1.00000000  rch
  1 4 6  rch_lu1       1.00000000  rch
  1 4 7  rch_lu1       1.00000000  rch
  1 4 8  rch_lu1       1.00000000  rch
  1 4 9  rch_lu1       1.00000000  rch
  1 4 10  rch_lu1       1.00000000  rch
  1 5 1  rch_lu1       1.00000000  rch
  1 5 2  rch_lu1       1.00000000  rch
  1 5 3  rch_lu1       1.00000000  rch
  1 5 4  rch_lu1       1.00000000  rch
  1 5 5  rch_lu1       1.00000000  rch
  1 5 6  rch_lu1       1.00000000  rch
  1 5 7  rch_lu1       1.00000000  rch
  1 5 8  rch_lu1       1.00000000  rch
  1 5 9  rch_lu1       1.00000000  rch
  1 5 10  rch_lu1       1.00000000  rch
  1 6 1  rch_lu1       1.00000000  rch
  1 6 2  rch_lu1       1.00000000  rch
  1 6 3  rch_lu1       1.00000000  rch
  1 6 4  rch_lu1       1.00000000  rch
  1 6 5  rch_lu1       1.00000000  rch
  1 6 6  rch_lu1       1.00000000  rch
  1 6 7  rch_lu1       1.00000000  rch
  1 6 8  rch_lu1       1.00000000  rch
  1 6 9  rch_lu1       1.00000000  rch
  1 6 10  rch_lu1       1.00000000  rch
  1 7 1  rch_lu1       1.00000000  rch
  1 7 2  rch_lu1       1.00000000  rch
  1 7 3  rch_lu1       1.00000000  rch
  1 7 4  rch_lu1       1.00000000  rch
  1 7 5  rch_lu1       1.00000000  rch
  1 7 6  rch_lu1       1.00000000  rch
  1 7 7  rch_lu1       1.00000000  rch
  1 7 8  rch_lu1       1.00000000  rch
  1 7 9  rch_lu1       1.00000000  rch
  1 7 10  rch_lu1       1.00000000  rch
  1 8 1  rch_lu1       1.00000000  rch
  1 8 2  rch_lu1       1.00000000  rch
  1 8 3  rch_lu1       1.00000000  rch
  1 8 4  rch_lu1       1.00000000  rch
  1 8 5  rch_lu1       1.00000000  rch
  1 8 6  rch_lu1       1.00000000  rch
  1 8 7  rch_lu1       1.00000000  rch
  1 8 8  rch_lu1       1.00000000  rch
  1 8 9  rch_lu1       1.00000000  rch
  1 8 10  rch_lu1       1.00000000  rch
  1 9 1  rch_lu1       1.00000000  rch
  1 9 2  rch_lu1       1.00000000  rch
  1 9 3  rch_lu1       1.00000000  rch
  1 9 4  rch_lu1       1.00000000  rch
  1 9 5  rch_lu1       1.00000000  rch
  1 9 6  rch_lu1       1.00000000  rch
  1 9 7  rch_lu1       1.00000000  rch
  1 9 8  rch_lu1       1.00000000  rch
  1 9 9  rch_lu1       1.00000000  rch
  1 9 10  rch_lu1       1.00000000  rch
  1 10 1  rch_lu1       1.00000000  rch
  1 10 2  rch_lu1       1.00000000  rch
  1 10 3  rch_lu1       1.00000000  rch
  1 10 4  rch_lu1       1.00000000  rch
  1 10 5  rch_lu1       1.00000000  rch
  1 10 6  rch_lu1       1.00000000  rch
  1 10 7  rch_lu1       1.00000000  rch
  1 10 8  rch_lu1       1.00000000  rch
  1 10 9  rch_lu1       1.00000000  rch
  1 10 10  rch_lu1       1.00000000  rch
  1 11 1  rch_lu1       1.00000000  rch
  1 11 2  rch_lu1       1.00000000  rch
  1 11 3  rch_lu1       1.00000000  rch
  1 11 4  rch_lu1       1.00000000  rch
  1 11 5  rch_lu1       1.00000000  rch
  1 11 6  rch_lu1       1.00000000  rch
  1 11 7  rch_lu1       1.00000000  rch
  1 11 8  rch_lu1       1.00000000  rch
  1 11 9  rch_lu1       1.00000000  rch
  1 11 10  rch_lu1       1.00000000  rch
  1 12 1  rch_lu1       1.00000000  rch
  1 12 2  rch_lu1       1.00000000  rch
  1 12 3  rch_lu1       1.00000000  rch
  1 12 4  rch_lu1       1.00000000  rch
  1 12 5  rch_lu1       1.00000000  rch
  1 12 6  rch_lu1       1.00000000  rch
  1 12 7  rch_lu1       1.00000000  rch
  1 12 8  rch_lu1       1.00000000  rch
  1 12 9  rch_lu1       1.00000000  rch
  1 12 10  rch_lu1       1.00000000  rch
  1 13 1  rch_lu1       1.00000000  rch
  1 13 2  rch_lu1       1.00000000  rch
  1 13 3  rch_lu1       1.00000000  rch
  1 13 4  rch_lu1       1.00000000  rch
  1 13 5  rch_lu1       1.00000000  rch
  1 13 6  rch_lu1       1.00000000  rch
  1 13 7  rch_lu1       1.00000000  rch
  1 13 8  rch_lu1       1.00000000  rch
  1 13 9  rch_lu1       1.00000000  rch
  1 13 10  rch_lu1       1.00000000  rch
  1 14 1  rch_lu1       1.00000000  rch
  1 14 2  rch_lu1       1.00000000  rch
  1 14 3  rch_lu1       1.00000000  rch
  1 14 4  rch_lu1       1.00000000  rch
  1 14 5  rch_lu1       1.00000000  rch
  1 14 6  rch_lu1       1.00000000  rch
  1 14 7  rch_lu1       1.00000000  rch
  1 14 8  rch_lu1       1.00000000  rch
  1 14 9  rch_lu1       1.00000000  rch
  1 14 10  rch_lu1       1.00000000  rch
  1 15 1  rch_lu1       1.00000000  rch
  1 15 2  rch_lu1       1.00000000  rch
  1 15 3  rch_lu1       1.00000000  rch
  1 15 4  rch_lu1       1.00000000  rch
  1 15 5  rch_lu1       1.00000000  rch
  1 15 6  rch_lu1       1.00000000  rch
  1 15 7  rch_lu1       1.00000000  rch
  1 15 8  rch_lu1       1.00000000  rch
  1 15 9  rch_lu1       1.00000000  rch
  1 15 10  rch_lu1       1.00000000  rch
END period  2

