# File generated by Flopy version 3.3.3 on 06/21/2021 at 09:33:45.
BEGIN options
  TIME_UNITS  days
END options

BEGIN dimensions
  NPER  2
END dimensions

BEGIN perioddata
       1.00000000  1       1.00000000
    3650.00000000  120       1.00000000
END perioddata

