BEGIN options
  TIME_UNITS  days
END options

BEGIN dimensions
  NPER  2
END dimensions

BEGIN perioddata
       1.00000000  1       1.00000000
    3650.00000000  120       1.00000000
END perioddata

